/*--------------------------------*- C++ -*----------------------------------*\
  =========                 |				
  \\      /  F ield         | OpenFOAM: The Open Source CFD Toolbox
   \\    /   O peration     | Website:  https://openfoam.org
    \\  /    A nd           | Version:  9                                   	
     \\/     M anipulation  |
\*---------------------------------------------------------------------------*/
FoamFile
{
    format      ascii;
    class       dictionary;
    object      topoSetDict;
}
// * * * * * * * * * * * * * * * * * * * * * * * * * * * * * * * * * * * * * //

actions
(

    /*{
        action  new;
        name    AMI;
        type    cellZoneSet;

        source  setToCellZone;
        sourceInfo
        {
	    set region1;
        }
    }*/
    
        {
        name    AMI;
        type    faceSet;
        action  new;
        source  patchToFace;
        patch   "rotWall";
    }

);

// ************************************************************************* //
